Circuit: * D:\Users\Youhua Xu\Desktop\LTspice-demos\ADA4807-4.asc

Limiting rise time of source v2 to 2.5e-007
Limiting fall time of source v2 to 2.5e-007
Direct Newton iteration for .op point succeeded.

Date: Fri Jul 24 22:15:15 2020
Total elapsed time: 0.127 seconds.

tnom = 27
temp = 27
method = modified trap
totiter = 2837
traniter = 2829
tranpoints = 1395
accept = 1305
rejected = 90
matrix size = 17
fillins = 7
solver = Normal
Matrix Compiler1: 1.19 KB object code size  0.2/0.1/[0.1]
Matrix Compiler2: 1.73 KB object code size  0.2/0.2/[0.1]

