Circuit: * D:\Users\Youhua Xu\Desktop\LTspice-demos\Draft9.asc

Limiting rise time of source v1 to 2.5e-007
Limiting fall time of source v1 to 2.5e-007
WARNING: Node NC_02 is floating.

WARNING: Less than two connections to node NC_01.  This node is used by D2.
WARNING: Less than two connections to node NC_02.  This node is used by C1.
Direct Newton iteration for .op point succeeded.

Date: Fri Jul 24 22:21:18 2020
Total elapsed time: 0.262 seconds.

tnom = 27
temp = 27
method = modified trap
totiter = 2903
traniter = 2889
tranpoints = 1416
accept = 1320
rejected = 96
matrix size = 19
fillins = 7
solver = Normal
Matrix Compiler1: 1.26 KB object code size  0.7/0.4/[0.2]
Matrix Compiler2: 1.84 KB object code size  0.5/0.6/[0.4]

